<?xml version="1.0" encoding="UTF-8"?>
<!-- 
    intersection.edg.xml
    定義四向十字路口的道路（每個方向雙向各一條）
    
    命名規則：
    - north_in：從北方「進入」路口的道路
    - north_out：從路口「離開」往北的道路
    - 以此類推
    
    numLanes：車道數（我們設 2 條）
    speed：最高速限（m/s，13.89 m/s ≈ 50 km/h）
-->
<edges>
    <!-- 南北向道路 -->
    <edge id="north_in"  from="north"  to="center" numLanes="2" speed="13.89"/>
    <edge id="north_out" from="center" to="north"  numLanes="2" speed="13.89"/>
    <edge id="south_in"  from="south"  to="center" numLanes="2" speed="13.89"/>
    <edge id="south_out" from="center" to="south"  numLanes="2" speed="13.89"/>
    
    <!-- 東西向道路 -->
    <edge id="east_in"   from="east"   to="center" numLanes="2" speed="13.89"/>
    <edge id="east_out"  from="center" to="east"   numLanes="2" speed="13.89"/>
    <edge id="west_in"   from="west"   to="center" numLanes="2" speed="13.89"/>
    <edge id="west_out"  from="center" to="west"   numLanes="2" speed="13.89"/>
</edges>
