<?xml version="1.0" encoding="UTF-8"?>
<!-- 
    intersection.nod.xml
    定義四向十字路口的節點（交叉點）位置
    
    座標說明：
    - center：中心路口（有紅綠燈）
    - north/south/east/west：四個方向的端點
-->
<nodes>
    <!-- 中心路口：設定為有紅綠燈的交叉口 -->
    <node id="center" x="0"    y="0"    type="traffic_light"/>
    
    <!-- 四個方向的端點：普通優先道路 -->
    <node id="north"  x="0"    y="500"  type="priority"/>
    <node id="south"  x="0"    y="-500" type="priority"/>
    <node id="east"   x="500"  y="0"    type="priority"/>
    <node id="west"   x="-500" y="0"    type="priority"/>
</nodes>
